Circuit: * Y:\projects\hardware\project_llama\simulations\clap_detector.asc

WARNING: Less than two connections to node N006.  This node is used by R7.
Direct Newton iteration failed to find .op point.  (Use ".option noopiter" to skip.)
Starting Gmin stepping
Gmin = 10
Gmin = 1.07374
Gmin = 0.115292
Gmin = 0.0123794
Gmin = 0.00132923
Gmin = 0.000142725
Gmin = 1.5325e-005
Gmin = 1.6455e-006
Gmin = 1.76685e-007
Gmin = 1.89714e-008
vernier = 0.5
vernier = 0.25
vernier = 0.125
vernier = 0.0625
vernier = 0.03125
vernier = 0.015625
Gmin = 9.71334e-009
vernier = 0.0078125
vernier = 0.00390625
vernier = 0.00195313
vernier = 0.000976563
vernier = 0.000488281
Gmin = 0
Gmin stepping failed

Starting source stepping with srcstepmethod=0
Source Step = 3.0303%
vernier = 0.25
Source Step = 0.0177557%
Starting source stepping with srcstepmethod=1
Source Step = 3.0303%
vernier = 0.25
Source stepping failed

Pseudo Transient succeeded in finding the operating point at 2.61872 s.

Date: Fri Oct 15 17:53:03 2021
Total elapsed time: 0.456 seconds.

tnom = 27
temp = 27
method = modified trap
totiter = 49467
traniter = 41732
tranpoints = 14207
accept = 9488
rejected = 4724
matrix size = 14
fillins = 4
solver = Normal
Matrix Compiler1: 658 bytes object code size  0.1/0.1/[0.0]
Matrix Compiler2: 1.14 KB object code size  0.1/0.2/[0.1]

